pglib-opf-master/pglib_opf_case793_goc_tep.m
%%%%%%%%%%%%%%%%%%%%%%%%%%%%%%%%%%%%%%%%%%%%%%%%%%%%%%%%%%%%%%%%%%%%%%%%%%%
%%%%                                                                  %%%%%
%%%%    IEEE PES Power Grid Library - Optimal Power Flow - v20.07     %%%%%
%%%%          (https://github.com/power-grid-lib/pglib-opf)           %%%%%
%%%%               Benchmark Group - Typical Operations               %%%%%
%%%%                         12 - July - 2020                         %%%%%
%%%%                                                                  %%%%%
%%%%%%%%%%%%%%%%%%%%%%%%%%%%%%%%%%%%%%%%%%%%%%%%%%%%%%%%%%%%%%%%%%%%%%%%%%%
%
%   A 793 bus model created by the Sustainable Data Evolution Technology (SDET)
%   tool for use in ARPA-e's Grid Optimization Competition, Challenge 1.
%
%   https://gocompetition.energy.gov/challenges/22/datasets
%
%   Developed by Renke Huang and Ahmad Tbaileh,
%   Pacific Northwest National Laboratory, U.S.A.
%   Provided in the public domain. February, 2020
%
function mpc = pglib_opf_case793_goc
mpc.version = '2';
mpc.baseMVA = 100.0;

%% bus data
%	bus_i	type	Pd	Qd	Gs	Bs	area	Vm	Va	baseKV	zone	Vmax	Vmin
mpc.bus = [
	1	 1	 15.786	 6.645	 0.0	 0.0	 1	    0.99500	    0.00000	 115.0	 1	    1.06000	    0.93000;
	2	 1	 25.758	 17.953	 0.0	 15.498	 1	    0.99500	    0.00000	 115.0	 1	    1.06000	    0.93000;
	3	 1	 9.059	 2.568	 0.0	 0.0	 1	    0.99500	    0.00000	 35.0	 1	    1.06000	    0.93000;
	4	 1	 0.0	 0.0	 0.0	 0.0	 1	    0.99500	    0.00000	 115.0	 1	    1.06000	    0.93000;
	5	 1	 0.503	 -1.304	 0.0	 0.0	 1	    0.99500	    0.00000	 13.0	 1	    1.06000	    0.93000;
	6	 1	 0.0	 0.0	 0.0	 0.0	 1	    0.99500	    0.00000	 14.0	 1	    1.06000	    0.93000;
	7	 1	 6.984	 3.995	 0.0	 0.0	 1	    0.99500	    0.00000	 115.0	 1	    1.06000	    0.93000;
	8	 1	 2.177	 0.37	 0.0	 0.0	 1	    0.99500	    0.00000	 13.0	 1	    1.06000	    0.93000;
	9	 1	 13.454	 2.64	 0.0	 0.0	 1	    0.99500	    0.00000	 35.0	 1	    1.06000	    0.93000;
	10	 1	 0.0	 0.0	 0.0	 0.0	 1	    0.99500	    0.00000	 115.0	 1	    1.06000	    0.93000;
	11	 1	 0.0	 0.0	 0.0	 0.0	 1	    0.99500	    0.00000	 115.0	 1	    1.06000	    0.93000;
	12	 1	 10.003	 6.573	 0.0	 0.0	 1	    0.99500	    0.00000	 35.0	 1	    1.06000	    0.93000;
	13	 1	 8.299	 2.28	 0.0	 0.0	 1	    0.99500	    0.00000	 13.0	 1	    1.06000	    0.93000;
	15	 1	 13.341	 3.441	 0.0	 0.0	 1	    0.99500	    0.00000	 35.0	 1	    1.06000	    0.93000;
	16	 1	 0.0	 0.0	 0.0	 0.0	 1	    0.99500	    0.00000	 115.0	 1	    1.06000	    0.93000;
	17	 1	 0.0	 0.0	 0.0	 0.0160397150585	 1	    0.99500	    0.00000	 115.0	 1	    1.06000	    0.93000;
	18	 1	 0.0	 0.0	 0.0	 0.0	 1	    0.99500	    0.00000	 230.0	 1	    1.06000	    0.93000;
	19	 1	 0.0	 0.0	 0.0	 0.0	 1	    0.99500	    0.00000	 230.0	 1	    1.06000	    0.93000;
	20	 1	 13.054	 -4.149	 0.0	 0.0	 1	    0.99500	    0.00000	 13.0	 1	    1.06000	    0.93000;
	21	 1	 8.103	 -1.089	 0.0	 0.0	 1	    0.99500	    0.00000	 115.0	 1	    1.06000	    0.93000;
	22	 1	 0.0	 0.0	 0.0	 0.0	 1	    0.99500	    0.00000	 115.0	 1	    1.06000	    0.93000;
	23	 2	 0.0	 0.0	 0.0	 -120.31	 1	    0.99500	    0.00000	 115.0	 1	    1.06000	    0.93000;
	24	 1	 0.0	 0.0	 0.0	 0.00111992645637	 1	    0.99500	    0.00000	 115.0	 1	    1.06000	    0.93000;
	25	 1	 0.0	 0.0	 0.0	 0.0	 1	    0.99500	    0.00000	 14.0	 1	    1.06000	    0.93000;
	27	 1	 0.0	 0.0	 0.0	 0.0	 1	    0.99500	    0.00000	 115.0	 1	    1.06000	    0.93000;
	28	 1	 24.865	 2.958	 0.0	 -4.2418108228	 1	    0.99500	    0.00000	 35.0	 1	    1.06000	    0.93000;
	30	 1	 0.0	 0.0	 0.0	 0.0	 1	    0.99500	    0.00000	 115.0	 1	    1.06000	    0.93000;
	31	 2	 0.0	 0.0	 0.0	 0.0	 1	    0.99500	    0.00000	 230.0	 1	    1.06000	    0.93000;
	32	 1	 7.159	 1.202	 0.0	 0.0	 1	    0.99500	    0.00000	 115.0	 1	    1.06000	    0.93000;
	33	 1	 0.0	 0.0	 0.0	 0.0	 1	    0.99500	    0.00000	 230.0	 1	    1.06000	    0.93000;
	34	 1	 10.024	 8.237	 0.0	 0.0	 1	    0.99500	    0.00000	 35.0	 1	    1.06000	    0.93000;
	35	 1	 0.0	 0.0	 0.0	 0.0	 1	    0.99500	    0.00000	 230.0	 1	    1.06000	    0.93000;
	36	 1	 108.412	 -4.52	 0.0	 -4.438	 1	    0.99500	    0.00000	 230.0	 1	    1.06000	    0.93000;
	37	 1	 -8.37	 -3.328	 0.0	 0.0	 1	    0.99500	    0.00000	 230.0	 1	    1.06000	    0.93000;
	38	 1	 0.0	 0.0	 0.0	 0.0	 1	    0.99500	    0.00000	 230.0	 1	    1.06000	    0.93000;
	39	 1	 17.809	 7.169	 0.0	 0.0	 1	    0.99500	    0.00000	 35.0	 1	    1.06000	    0.93000;
	40	 1	 0.0	 0.0	 0.0	 0.0	 1	    0.99500	    0.00000	 115.0	 1	    1.06000	    0.93000;
	41	 1	 0.0	 0.0	 0.0	 0.0	 1	    0.99500	    0.00000	 230.0	 1	    1.06000	    0.93000;
	43	 2	 2.054	 0.462	 0.0	 0.0	 1	    0.99500	    0.00000	 115.0	 1	    1.06000	    0.93000;
	44	 1	 9.059	 2.301	 0.0	 0.0	 1	    0.99500	    0.00000	 115.0	 1	    1.06000	    0.93000;
	45	 1	 0.0	 0.0	 0.0	 0.0	 1	    0.99500	    0.00000	 230.0	 1	    1.06000	    0.93000;
	46	 2	 0.0	 0.0	 0.0	 0.0	 1	    0.99500	    0.00000	 230.0	 1	    1.06000	    0.93000;
	47	 2	 10.794	 -1.53	 0.0	 0.0	 1	    0.99500	    0.00000	 115.0	 1	    1.06000	    0.93000;
	49	 1	 10.024	 8.237	 0.0	 0.0	 1	    0.99500	    0.00000	 35.0	 1	    1.06000	    0.93000;
	50	 1	 0.0	 0.0	 0.0	 0.0	 1	    0.99500	    0.00000	 115.0	 1	    1.06000	    0.93000;
	51	 1	 5.135	 3.081	 0.0	 0.0	 1	    0.99500	    0.00000	 13.0	 1	    1.06000	    0.93000;
	52	 2	 0.0	 0.0	 0.0	 0.0	 1	    0.99500	    0.00000	 230.0	 1	    1.06000	    0.93000;
	53	 1	 7.169	 0.555	 0.0	 0.0	 1	    0.99500	    0.00000	 115.0	 1	    1.06000	    0.93000;
	54	 1	 14.656	 -1.109	 0.0	 -5.72431630412	 1	    0.99500	    0.00000	 35.0	 1	    1.06000	    0.93000;
	55	 2	 0.0	 0.0	 0.0	 0.0	 1	    0.99500	    0.00000	 230.0	 1	    1.06000	    0.93000;
	56	 1	 6.429	 5.947	 0.0	 0.0	 1	    0.99500	    0.00000	 35.0	 1	    1.06000	    0.93000;
	57	 1	 7.364	 -0.277	 0.0	 0.0	 1	    0.99500	    0.00000	 115.0	 1	    1.06000	    0.93000;
	58	 1	 10.106	 10.951	 0.0	 34.5917650937	 1	    0.99500	    0.00000	 115.0	 1	    1.06000	    0.93000;
	59	 2	 9.151	 5.402	 0.0	 0.0	 1	    0.99500	    0.00000	 35.0	 1	    1.06000	    0.93000;
	60	 1	 0.0	 0.0	 0.0	 0.0	 1	    0.99500	    0.00000	 115.0	 1	    1.06000	    0.93000;
	61	 1	 3.851	 -0.472	 0.0	 0.0	 1	    0.99500	    0.00000	 13.0	 1	    1.06000	    0.93000;
	62	 1	 8.001	 -0.277	 0.0	 0.0	 1	    0.99500	    0.00000	 115.0	 1	    1.06000	    0.93000;
	63	 1	 30.318	 0.092	 0.0	 0.0	 1	    0.99500	    0.00000	 230.0	 1	    1.06000	    0.93000;
	64	 1	 8.699	 7.713	 0.0	 0.0	 1	    0.99500	    0.00000	 35.0	 1	    1.06000	    0.93000;
	65	 2	 0.935	 0.606	 0.0	 0.0	 1	    0.99500	    0.00000	 14.0	 1	    1.06000	    0.93000;
	66	 1	 0.0	 0.0	 0.0	 0.0	 1	    0.99500	    0.00000	 230.0	 1	    1.06000	    0.93000;
	67	 1	 0.0	 0.0	 0.0	 24.9999281688	 1	    0.99500	    0.00000	 115.0	 1	    1.06000	    0.93000;
	68	 1	 7.22	 -0.267	 0.0	 0.0	 1	    0.99500	    0.00000	 115.0	 1	    1.06000	    0.93000;
	69	 1	 0.0	 0.0	 0.0	 0.0	 1	    0.99500	    0.00000	 230.0	 1	    1.06000	    0.93000;
	70	 1	 5.69	 -3.564	 0.0	 0.0	 1	    0.99500	    0.00000	 35.0	 1	    1.06000	    0.93000;
	71	 2	 11.544	 -3.594	 0.0	 0.0	 1	    0.99500	    0.00000	 115.0	 1	    1.06000	    0.93000;
	72	 1	 5.495	 0.359	 0.0	 0.0	 1	    0.99500	    0.00000	 115.0	 1	    1.06000	    0.93000;
	73	 1	 0.0	 0.0	 0.0	 0.0	 1	    0.99500	    0.00000	 115.0	 1	    1.06000	    0.93000;
	74	 1	 6.82	 4.888	 0.0	 0.00179881396866	 1	    0.99500	    0.00000	 115.0	 1	    1.06000	    0.93000;
	75	 1	 3.061	 -2.485	 0.0	 0.0	 1	    0.99500	    0.00000	 13.0	 1	    1.06000	    0.93000;
	76	 1	 5.484	 -0.277	 0.0	 0.0	 1	    0.99500	    0.00000	 115.0	 1	    1.06000	    0.93000;
	77	 1	 24.064	 0.431	 0.0	 0.0	 1	    0.99500	    0.00000	 35.0	 1	    1.06000	    0.93000;
	78	 1	 14.327	 3.533	 0.0	 0.0	 1	    0.99500	    0.00000	 35.0	 1	    1.06000	    0.93000;
	79	 1	 0.0	 0.0	 0.0	 0.0	 1	    0.99500	    0.00000	 230.0	 1	    1.06000	    0.93000;
	80	 1	 0.924	 0.555	 0.0	 0.0	 1	    0.99500	    0.00000	 14.0	 1	    1.06000	    0.93000;
	81	 1	 30.844	 22.078	 0.0	 21.502	 1	    0.99500	    0.00000	 115.0	 1	    1.06000	    0.93000;
	82	 1	 7.169	 0.555	 0.0	 0.0	 1	    0.99500	    0.00000	 115.0	 1	    1.06000	    0.93000;
	83	 1	 0.0	 0.0	 0.0	 0.0	 1	    0.99500	    0.00000	 115.0	 1	    1.06000	    0.93000;
	84	 1	 8.894	 0.565	 0.0	 0.0	 1	    0.99500	    0.00000	 115.0	 1	    1.06000	    0.93000;
	85	 1	 14.04	 3.934	 0.0	 0.0	 1	    0.99500	    0.00000	 115.0	 1	    1.06000	    0.93000;
	86	 2	 0.0	 0.0	 0.0	 0.0	 1	    0.99500	    0.00000	 230.0	 1	    1.06000	    0.93000;
	87	 1	 0.0	 0.0	 0.0	 0.0	 1	    0.99500	    0.00000	 230.0	 1	    1.06000	    0.93000;
	88	 1	 -0.267	 0.01	 0.0	 -1.541560956	 1	    0.99500	    0.00000	 35.0	 1	    1.06000	    0.93000;
	89	 1	 20.079	 0.021	 0.0	 0.0	 1	    0.99500	    0.00000	 35.0	 1	    1.06000	    0.93000;
	90	 2	 0.0	 0.0	 0.0	 0.0	 1	    0.99500	    0.00000	 230.0	 1	    1.06000	    0.93000;
	91	 1	 0.0	 0.0	 0.0	 0.0	 1	    0.99500	    0.00000	 115.0	 1	    1.06000	    0.93000;
	92	 1	 4.653	 -0.277	 0.0	 0.0	 1	    0.99500	    0.00000	 115.0	 1	    1.06000	    0.93000;
	93	 2	 0.0	 0.0	 0.0	 0.0	 1	    0.99500	    0.00000	 115.0	 1	    1.06000	    0.93000;
	94	 1	 2.229	 2.578	 0.0	 11.8045729003	 1	    0.99500	    0.00000	 115.0	 1	    1.06000	    0.93000;
	95	 1	 0.0	 0.0	 0.0	 0.0	 1	    0.99500	    0.00000	 345.0	 2	    1.06000	    0.93000;
	96	 1	 22.758	 40.419	 0.0	 0.0	 1	    0.99500	    0.00000	 345.0	 2	    1.06000	    0.93000;
	97	 1	 19.34	 25.99	 0.0	 0.0	 1	    0.99500	    0.00000	 345.0	 2	    1.06000	    0.93000;
	98	 1	 0.0	 0.0	 0.0	 -24.285	 1	    0.99500	    0.00000	 345.0	 2	    1.06000	    0.93000;
	99	 1	 7.189	 18.487	 0.0	 0.0	 1	    0.99500	    0.00000	 345.0	 2	    1.06000	    0.93000;
	100	 1	 8.216	 21.568	 0.0	 4.571	 1	    0.99500	    0.00000	 345.0	 2	    1.06000	    0.93000;
	101	 1	 105.543	 20.117	 0.0	 0.0	 1	    0.99500	    0.00000	 345.0	 2	    1.06000	    0.93000;
	102	 1	 1.156	 -45.892	 0.0	 -43.607	 1	    0.99500	    0.00000	 345.0	 2	    1.06000	    0.93000;
	103	 1	 0.0	 0.0	 0.0	 0.0	 1	    0.99500	    0.00000	 138.0	 2	    1.06000	    0.93000;
	104	 1	 0.0	 0.0	 0.0	 0.0	 1	    0.99500	    0.00000	 138.0	 2	    1.06000	    0.93000;
	105	 2	 4.396	 1.623	 0.0	 0.0	 1	    0.99500	    0.00000	 138.0	 2	    1.06000	    0.93000;
	106	 1	 5.628	 2.362	 0.0	 0.0	 1	    0.99500	    0.00000	 138.0	 2	    1.06000	    0.93000;
	107	 1	 0.0	 0.0	 0.0	 0.0	 1	    0.99500	    0.00000	 138.0	 2	    1.06000	    0.93000;
	108	 1	 10.028	 -13.958	 0.0	 0.0	 1	    0.99500	    0.00000	 138.0	 2	    1.06000	    0.93000;
	109	 1	 8.453	 2.218	 0.0	 0.0	 1	    0.99500	    0.00000	 138.0	 2	    1.06000	    0.93000;
	110	 1	 1.921	 0.822	 0.0	 0.0	 1	    0.99500	    0.00000	 138.0	 2	    1.06000	    0.93000;
	111	 1	 3.43	 1.458	 0.0	 0.0	 1	    0.99500	    0.00000	 138.0	 2	    1.06000	    0.93000;
	112	 1	 13.886	 5.166	 0.0	 0.0	 1	    0.99500	    0.00000	 138.0	 2	    1.06000	    0.93000;
	113	 1	 0.0	 0.0	 0.0	 0.0	 1	    0.99500	    0.00000	 138.0	 2	    1.06000	    0.93000;
	114	 1	 0.0	 0.0	 0.0	 0.0	 1	    0.99500	    0.00000	 138.0	 2	    1.06000	    0.93000;
	115	 1	 4.94	 1.777	 0.0	 0.0	 1	    0.99500	    0.00000	 138.0	 2	    1.06000	    0.93000;
	116	 1	 24.249	 21.671	 0.0	 0.0	 1	    0.99500	    0.00000	 138.0	 2	    1.06000	    0.93000;
	117	 1	 0.0	 0.0	 0.0	 0.0	 1	    0.99500	    0.00000	 138.0	 2	    1.06000	    0.93000;
	118	 1	 5.608	 2.372	 0.0	 0.0	 1	    0.99500	    0.00000	 138.0	 2	    1.06000	    0.93000;
	119	 1	 0.0	 0.0	 0.0	 0.0	 1	    0.99500	    0.00000	 138.0	 2	    1.06000	    0.93000;
	120	 1	 9.88	 3.225	 0.0	 0.0	 1	    0.99500	    0.00000	 138.0	 2	    1.06000	    0.93000;
	121	 1	 0.0	 0.0	 0.0	 0.0	 1	    0.99500	    0.00000	 138.0	 2	    1.06000	    0.93000;
	122	 1	 0.0	 0.0	 0.0	 0.0	 1	    0.99500	    0.00000	 138.0	 2	    1.06000	    0.93000;
	123	 1	 0.0	 0.0	 0.0	 0.0	 1	    0.99500	    0.00000	 138.0	 2	    1.06000	    0.93000;
	124	 1	 0.0	 0.0	 0.0	 0.0	 1	    0.99500	    0.00000	 138.0	 2	    1.06000	    0.93000;
	125	 1	 0.0	 0.0	 0.0	 0.0	 1	    0.99500	    0.00000	 138.0	 2	    1.06000	    0.93000;
	126	 1	 0.0	 0.0	 0.0	 0.0	 1	    0.99500	    0.00000	 138.0	 2	    1.06000	    0.93000;
	127	 1	 0.0	 0.0	 0.0	 0.0	 1	    0.99500	    0.00000	 138.0	 2	    1.06000	    0.93000;
	128	 1	 1.027	 0.39	 0.0	 0.0	 1	    0.99500	    0.00000	 138.0	 2	    1.06000	    0.93000;
	129	 1	 4.611	 3.194	 0.0	 0.0	 1	    0.99500	    0.00000	 138.0	 2	    1.06000	    0.93000;
	130	 1	 0.0	 0.0	 0.0	 0.0	 1	    0.99500	    0.00000	 138.0	 2	    1.06000	    0.93000;
	131	 1	 82.164	 40.055	 0.0	 0.0	 1	    0.99500	    0.00000	 138.0	 2	    1.06000	    0.93000;
	132	 1	 5.371	 1.859	 0.0	 0.0	 1	    0.99500	    0.00000	 138.0	 2	    1.06000	    0.93000;
	133	 1	 1.972	 0.616	 0.0	 -1.321	 1	    0.99500	    0.00000	 138.0	 2	    1.06000	    0.93000;
	134	 2	 54.434	 25.697	 0.0	 0.0	 1	    0.99500	    0.00000	 138.0	 2	    1.06000	    0.93000;
	135	 1	 6.162	 2.188	 0.0	 0.0	 1	    0.99500	    0.00000	 138.0	 2	    1.06000	    0.93000;
	136	 1	 2.855	 0.924	 0.0	 0.0	 1	    0.99500	    0.00000	 138.0	 2	    1.06000	    0.93000;
	137	 1	 39.039	 -9.159	 0.0	 -13.204	 1	    0.99500	    0.00000	 138.0	 2	    1.06000	    0.93000;
	138	 1	 0.442	 0.103	 0.0	 0.0	 1	    0.99500	    0.00000	 138.0	 2	    1.06000	    0.93000;
	139	 1	 0.0	 0.0	 0.0	 0.0	 1	    0.99500	    0.00000	 138.0	 2	    1.06000	    0.93000;
	140	 1	 2.855	 1.705	 0.0	 0.0	 1	    0.99500	    0.00000	 138.0	 2	    1.06000	    0.93000;
	141	 1	 5.988	 0.688	 0.0	 0.0	 1	    0.99500	    0.00000	 138.0	 2	    1.06000	    0.93000;
	142	 1	 8.34	 2.835	 0.0	 0.0	 1	    0.99500	    0.00000	 138.0	 2	    1.06000	    0.93000;
	143	 1	 0.426	 1.249	 0.0	 1.197	 1	    0.99500	    0.00000	 138.0	 2	    1.06000	    0.93000;
	144	 1	 0.0	 0.0	 0.0	 0.0	 1	    0.99500	    0.00000	 138.0	 2	    1.06000	    0.93000;
	145	 1	 53.244	 16.969	 0.0	 16.36	 1	    0.99500	    0.00000	 138.0	 2	    1.06000	    0.93000;
	146	 1	 1.643	 0.411	 0.0	 0.0	 1	    0.99500	    0.00000	 138.0	 2	    1.06000	    0.93000;
	147	 1	 1.099	 0.503	 0.0	 0.0	 1	    0.99500	    0.00000	 138.0	 2	    1.06000	    0.93000;
	148	 1	 6.707	 2.865	 0.0	 0.0	 1	    0.99500	    0.00000	 138.0	 2	    1.06000	    0.93000;
	149	 1	 9.227	 -8.412	 0.0	 -8.091	 1	    0.99500	    0.00000	 138.0	 2	    1.06000	    0.93000;
	150	 1	 4.94	 1.551	 0.0	 0.0	 1	    0.99500	    0.00000	 138.0	 2	    1.06000	    0.93000;
	151	 2	 19.421	 31.027	 0.0	 0.0	 1	    0.99500	    0.00000	 138.0	 2	    1.06000	    0.93000;
	152	 2	 7.189	 14.379	 0.0	 0.0	 1	    0.99500	    0.00000	 138.0	 2	    1.06000	    0.93000;
	153	 1	 9.336	 3.143	 0.0	 0.0	 1	    0.99500	    0.00000	 138.0	 2	    1.06000	    0.93000;
	154	 1	 0.0	 0.0	 0.0	 0.0	 1	    0.99500	    0.00000	 138.0	 2	    1.06000	    0.93000;
	155	 1	 0.0	 0.0	 0.0	 0.0	 1	    0.99500	    0.00000	 138.0	 2	    1.06000	    0.93000;
	156	 1	 0.0	 0.0	 0.0	 40.892	 1	    0.99500	    0.00000	 138.0	 2	    1.06000	    0.93000;
	157	 1	 3.02	 1.284	 0.0	 0.0	 1	    0.99500	    0.00000	 138.0	 2	    1.06000	    0.93000;
	158	 1	 0.0	 0.0	 0.0	 0.0	 1	    0.99500	    0.00000	 138.0	 2	    1.06000	    0.93000;
	159	 2	 14.944	 0.565	 0.0	 0.0	 1	    0.99500	    0.00000	 138.0	 2	    1.06000	    0.93000;
	160	 1	 11.534	 2.732	 0.0	 0.0	 1	    0.99500	    0.00000	 138.0	 2	    1.06000	    0.93000;
	161	 1	 6.553	 2.845	 0.0	 0.0	 1	    0.99500	    0.00000	 138.0	 2	    1.06000	    0.93000;
	162	 1	 8.535	 3.78	 0.0	 0.0	 1	    0.99500	    0.00000	 138.0	 2	    1.06000	    0.93000;
	163	 1	 0.873	 0.082	 0.0	 0.0	 1	    0.99500	    0.00000	 138.0	 2	    1.06000	    0.93000;
	164	 1	 0.0	 0.0	 0.0	 0.0	 1	    0.99500	    0.00000	 138.0	 2	    1.06000	    0.93000;
	165	 1	 0.678	 0.401	 0.0	 0.0	 1	    0.99500	    0.00000	 138.0	 2	    1.06000	    0.93000;
	166	 1	 0.544	 0.318	 0.0	 0.0	 1	    0.99500	    0.00000	 138.0	 2	    1.06000	    0.93000;
	167	 1	 0.0	 0.0	 0.0	 0.0	 1	    0.99500	    0.00000	 138.0	 2	    1.06000	    0.93000;
	168	 1	 10.65	 3.554	 0.0	 0.0	 1	    0.99500	    0.00000	 138.0	 2	    1.06000	    0.93000;
	169	 1	 2.64	 0.955	 0.0	 0.0	 1	    0.99500	    0.00000	 138.0	 2	    1.06000	    0.93000;
	170	 1	 0.0	 0.0	 0.0	 0.0	 1	    0.99500	    0.00000	 138.0	 2	    1.06000	    0.93000;
	171	 1	 5.495	 0.781	 0.0	 0.0	 1	    0.99500	    0.00000	 138.0	 2	    1.06000	    0.93000;
	172	 1	 0.0	 0.0	 0.0	 0.0	 1	    0.99500	    0.00000	 138.0	 2	    1.06000	    0.93000;
	173	 1	 7.456	 2.783	 0.0	 0.0	 1	    0.99500	    0.00000	 138.0	 2	    1.06000	    0.93000;
	174	 1	 0.0	 0.0	 0.0	 0.0	 1	    0.99500	    0.00000	 138.0	 2	    1.06000	    0.93000;
	175	 1	 3.071	 1.171	 0.0	 0.0	 1	    0.99500	    0.00000	 138.0	 2	    1.06000	    0.93000;
	176	 1	 6.594	 2.342	 0.0	 0.0	 1	    0.99500	    0.00000	 138.0	 2	    1.06000	    0.93000;
	177	 1	 0.0	 0.0	 0.0	 0.0	 1	    0.99500	    0.00000	 138.0	 2	    1.06000	    0.93000;
	178	 1	 0.0	 0.0	 0.0	 0.0	 1	    0.99500	    0.00000	 138.0	 2	    1.06000	    0.93000;
	179	 2	 6.152	 2.116	 0.0	 0.0	 1	    0.99500	    0.00000	 138.0	 2	    1.06000	    0.93000;
	180	 1	 0.0	 0.0	 0.0	 0.0	 1	    0.99500	    0.00000	 138.0	 2	    1.06000	    0.93000;
	181	 1	 4.663	 1.941	 0.0	 0.0	 1	    0.99500	    0.00000	 138.0	 2	    1.06000	    0.93000;
	182	 1	 4.396	 1.838	 0.0	 0.0	 1	    0.99500	    0.00000	 138.0	 2	    1.06000	    0.93000;
	183	 1	 0.0	 0.0	 0.0	 0.0	 1	    0.99500	    0.00000	 138.0	 2	    1.06000	    0.93000;
	184	 1	 3.738	 1.263	 0.0	 0.0	 1	    0.99500	    0.00000	 138.0	 2	    1.06000	    0.93000;
	185	 1	 4.385	 1.592	 0.0	 0.0	 1	    0.99500	    0.00000	 138.0	 2	    1.06000	    0.93000;
	186	 1	 0.0	 0.0	 0.0	 0.0	 1	    0.99500	    0.00000	 138.0	 2	    1.06000	    0.93000;
	187	 1	 0.0	 0.0	 0.0	 0.0	 1	    0.99500	    0.00000	 138.0	 2	    1.06000	    0.93000;
	188	 1	 0.77	 0.38	 0.0	 0.0	 1	    0.99500	    0.00000	 138.0	 2	    1.06000	    0.93000;
	189	 1	 1.315	 0.596	 0.0	 0.0	 1	    0.99500	    0.00000	 138.0	 2	    1.06000	    0.93000;
	190	 2	 0.0	 0.0	 0.0	 0.0	 1	    0.99500	    0.00000	 138.0	 2	    1.06000	    0.93000;
	191	 1	 4.724	 1.777	 0.0	 0.0	 1	    0.99500	    0.00000	 138.0	 2	    1.06000	    0.93000;
	192	 1	 0.0	 0.0	 0.0	 0.0	 1	    0.99500	    0.00000	 138.0	 2	    1.06000	    0.93000;
	193	 1	 4.724	 1.674	 0.0	 0.0	 1	    0.99500	    0.00000	 138.0	 2	    1.06000	    0.93000;
	194	 1	 12.52	 4.067	 0.0	 0.0	 1	    0.99500	    0.00000	 138.0	 2	    1.06000	    0.93000;
	195	 1	 18.155	 5.789	 0.0	 5.562	 1	    0.99500	    0.00000	 138.0	 2	    1.06000	    0.93000;
	196	 1	 0.0	 0.0	 0.0	 0.0	 1	    0.99500	    0.00000	 138.0	 2	    1.06000	    0.93000;
	197	 1	 0.0	 0.0	 0.0	 0.0	 1	    0.99500	    0.00000	 138.0	 2	    1.06000	    0.93000;
	198	 1	 3.954	 1.417	 0.0	 0.0	 1	    0.99500	    0.00000	 138.0	 2	    1.06000	    0.93000;
	199	 1	 0.0	 0.0	 0.0	 0.0	 1	    0.99500	    0.00000	 138.0	 2	    1.06000	    0.93000;
	200	 1	 5.454	 1.52	 0.0	 0.0	 1	    0.99500	    0.00000	 138.0	 2	    1.06000	    0.93000;
	201	 1	 7.621	 2.064	 0.0	 0.0	 1	    0.99500	    0.00000	 138.0	 2	    1.06000	    0.93000;
	202	 1	 2.208	 0.575	 0.0	 0.0	 1	    0.99500	    0.00000	 138.0	 2	    1.06000	    0.93000;
	203	 1	 0.0	 0.0	 0.0	 0.0	 1	    0.99500	    0.00000	 138.0	 2	    1.06000	    0.93000;
	204	 1	 12.14	 4.786	 0.0	 0.0	 1	    0.99500	    0.00000	 138.0	 2	    1.06000	    0.93000;
	205	 1	 11.513	 4.971	 0.0	 0.0	 1	    0.99500	    0.00000	 138.0	 2	    1.06000	    0.93000;
...
];

%% generator data
%	bus	Pg	Qg	Qmax	Qmin	Vg	mBase	status	Pmax	Pmin
mpc.gen = [
	6	 0.0	 0.0	 33.333	 -33.333	 0.995	 100.0	 0	 63.0	 28.5; 0
	23	 264.158	 0.0	 183.0	 -183.0	 0.995	 100.0	 1	 526.316	 2.0; 0
	25	 0.0	 0.0	 22.5	 -22.5	 0.995	 67.5	 0	 280.0	 2.0; 0
	25	 0.0	 0.0	 22.5	 -22.5	 0.995	 67.5	 0	 60.43	 14.25; 0
	31	 85.3615	 0.0	 160.0	 -160.0	 0.995	 100.0	 1	 136.038	 34.685; 0
	33	 0.0	 0.0	 19.29	 -19.29	 0.995	 57.87	 0	 46.2	 11.4; 0
	35	 0.0	 0.0	 33.127	 -33.127	 0.995	 99.38	 0	 288.0	 2.0; 0
	35	 0.0	 0.0	 23.05	 -23.05	 0.995	 69.15	 0	 300.0	 2.0; 0
	35	 0.0	 0.0	 16.237	 -16.237	 0.995	 48.71	 0	 40.14	 25.14; 0
	43	 151.091	 0.0	 160.0	 -160.0	 0.995	 100.0	 1	 301.053	 1.129; 0
	45	 0.0	 0.0	 67.75	 -67.75	 0.995	 203.25	 0	 173.25	 50.54; 0
	46	 33.616	 0.0	 160.0	 -160.0	 0.995	 100.0	 1	 55.716	 11.516; 0
	47	 42.0025	 0.0	 160.0	 -160.0	 0.995	 100.0	 1	 68.734	 15.271; 0
	52	 69.6935	 0.0	 160.0	 -160.0	 0.995	 100.0	 1	 111.717	 27.67; 0
	55	 85.337	 0.0	 160.0	 -160.0	 0.995	 100.0	 1	 136.0	 34.674; 0
	59	 150.864	 -18.734	 66.11	 -103.578	 0.995	 100.0	 1	 297.895	 3.833; 0
	65	 136.328	 44.631	 92.232	 -2.97	 0.995	 27.8	 1	 265.263	 7.393; 0
	65	 0.0	 0.0	 9.267	 -9.267	 0.995	 27.8	 0	 25.2	 4.75; 0
	71	 41.468	 0.0	 160.0	 -160.0	 0.995	 100.0	 1	 67.904	 15.032; 0
	80	 0.0	 0.0	 9.267	 -9.267	 0.995	 27.8	 0	 26.25	 4.75; 0
	80	 0.0	 0.0	 9.267	 -9.267	 0.995	 27.8	 0	 25.2	 2.0; 0
	86	 51.443	 0.0	 160.0	 -160.0	 0.995	 100.0	 1	 83.388	 19.498; 0
	87	 0.0	 0.0	 95.526	 -95.526	 0.995	 100.0	 0	 274.737	 2.0; 0
	90	 36.118	 0.0	 160.0	 -160.0	 0.995	 100.0	 1	 59.599	 12.637; 0
	93	 134.114	 0.0	 160.0	 -160.0	 0.995	 100.0	 1	 265.263	 2.965; 0
	98	 0.0	 0.0	 33.333	 -33.333	 0.995	 100.0	 0	 65.268	 50.268; 0
	99	 0.0	 0.0	 52.613	 -1.0	 0.995	 163.45	 0	 151.316	 70.0; 0
	100	 0.0	 0.0	 52.613	 -1.0	 0.995	 148.19	 0	 151.316	 70.0; 0
	100	 0.0	 0.0	 33.333	 -33.333	 0.995	 100.0	 0	 28.104	 13.104; 0
	105	 65.658	 0.0	 43.92	 -43.92	 0.995	 100.0	 1	 126.316	 5.0; 0
	116	 0.0	 0.0	 50.325	 -40.0	 0.995	 147.7	 0	 144.737	 32.0; 0
	117	 0.0	 0.0	 37.667	 -37.667	 0.995	 113.0	 0	 113.0	 32.0; 0
	121	 0.0	 0.0	 45.0	 -45.0	 0.995	 135.0	 0	 135.0	 35.0; 0
	131	 0.0	 0.0	 8.333	 -8.333	 0.995	 25.0	 0	 25.0	 10.0; 0
	131	 0.0	 0.0	 8.333	 -8.333	 0.995	 25.0	 0	 25.0	 10.0; 0
	131	 0.0	 0.0	 11.438	 -11.438	 0.995	 30.0	 0	 32.895	 10.0; 0
	131	 0.0	 0.0	 9.15	 -9.15	 0.995	 25.0	 0	 26.316	 10.0; 0
	133	 0.0	 0.0	 33.333	 -33.333	 0.995	 100.0	 0	 295.0	 2.396; 0
	134	 28.816	 0.0	 16.667	 -16.667	 0.995	 50.0	 1	 52.632	 5.0; 0
	151	 0.0	 0.0	 43.92	 -1.0	 0.995	 120.0	 0	 126.316	 70.0; 0
	151	 92.3245	 21.46	 43.92	 -1.0	 0.995	 120.0	 1	 126.316	 58.333; 0
	151	 65.658	 0.0	 43.92	 -43.92	 0.995	 100.0	 1	 126.316	 5.0; 0
	152	 118.4435	 26.9485	 54.897	 -1.0	 0.995	 144.0	 1	 157.887	 79.0; 0
	152	 0.0	 0.0	 36.667	 -36.667	 0.995	 110.0	 0	 110.0	 79.0; 0
	156	 0.0	 0.0	 33.333	 -33.333	 0.995	 100.0	 0	 62.466	 47.466; 0
	159	 154.229	 0.0	 160.0	 -160.0	 0.995	 100.0	 1	 308.421	 0.037; 0
	179	 68.158	 0.0	 43.92	 -43.92	 0.995	 100.0	 1	 126.316	 10.0; 0
	190	 50.9945	 0.0	 160.0	 -160.0	 0.995	 100.0	 1	 83.856	 18.133; 0
	221	 0.0	 0.0	 123.333	 -123.333	 0.995	 370.0	 0	 370.0	 240.0; 0
	221	 0.0	 0.0	 123.333	 -123.333	 0.995	 370.0	 0	 370.0	 240.0; 0
	221	 0.0	 0.0	 157.837	 -23.75	 0.995	 449.45	 0	 453.947	 240.0; 0
	222	 363.421	 75.1375	 169.275	 -19.0	 0.995	 455.56	 1	 486.842	 240.0; 0
	222	 0.0	 0.0	 135.42	 -19.0	 0.995	 397.31	 0	 389.474	 240.0; 0
	223	 599.6645	 85.5	 190.0	 -19.0	 0.995	 616.84	 1	 1148.453	 50.876; 0
	223	 599.6645	 85.5	 190.0	 -19.0	 0.995	 616.84	 1	 1148.453	 50.876; 0
	223	 599.6645	 85.5	 190.0	 -19.0	 0.995	 616.84	 1	 1148.453	 50.876; 0
	224	 0.0	 0.0	 169.275	 -19.0	 0.995	 451.84	 0	 486.842	 240.0; 0
	224	 343.684	 68.275	 155.55	 -19.0	 0.995	 416.51	 1	 447.368	 240.0; 0
	224	 343.684	 68.275	 155.55	 -19.0	 0.995	 416.51	 1	 447.368	 240.0; 0
	233	 114.9395	 0.0	 160.0	 -160.0	 0.995	 100.0	 1	 186.779	 43.1; 0
	236	 0.0	 0.0	 50.325	 -15.0	 0.995	 166.81	 0	 144.737	 91.667; 0
	236	 264.158	 0.0	 183.0	 -183.0	 0.995	 120.0	 1	 526.316	 2.0; 0
	246	 350.263	 70.5625	 160.125	 -19.0	 0.995	 477.9	 1	 460.526	 240.0; 0
	250	 0.0	 0.0	 10.98	 -10.98	 0.995	 30.0	 0	 31.579	 2.0; 0
	256	 134.684	 0.0	 92.964	 -92.964	 0.995	 0.43	 1	 267.368	 2.0; 0
	267	 156.05	 0.0	 160.0	 -160.0	 0.995	 100.0	 1	 309.474	 2.626; 0
	268	 259.8835	 0.0	 160.0	 -160.0	 0.995	 100.0	 1	 422.316	 97.451; 0
	272	 46.826	 0.0	 160.0	 -160.0	 0.995	 100.0	 1	 78.395	 15.257; 0
	275	 39.1815	 0.0	 160.0	 -160.0	 0.995	 100.0	 1	 76.902	 1.461; 0
	281	 144.049	 0.0	 160.0	 -160.0	 0.995	 100.0	 1	 286.316	 1.782; 0
	293	 0.0	 0.0	 76.667	 -76.667	 0.995	 230.0	 0	 173.25	 117.8; 0
	296	 0.0	 0.0	 76.667	 -76.667	 0.995	 230.0	 0	 173.25	 117.8; 0
	298	 16.787	 0.0	 160.0	 -160.0	 0.995	 100.0	 1	 29.593	 3.981; 0
	303	 65.658	 0.0	 43.92	 -43.92	 0.995	 100.0	 1	 126.316	 5.0; 0
	304	 0.0	 0.0	 33.333	 -33.333	 0.995	 100.0	 0	 44.434	 29.434; 0
	305	 0.0	 0.0	 76.667	 -76.667	 0.995	 230.0	 0	 173.25	 117.8; 0
	307	 22.7335	 0.0	 160.0	 -160.0	 0.995	 100.0	 1	 38.823	 6.644; 0
	309	 0.0	 0.0	 147.09	 -81.3	 0.995	 300.0	 0	 519.615	 198.808; 0
	326	 0.0	 0.0	 76.667	 -76.667	 0.995	 230.0	 0	 173.25	 117.8; 0
	335	 0.0	 0.0	 76.667	 -76.667	 0.995	 230.0	 0	 173.25	 117.8; 0
	337	 137.2695	 0.0	 160.0	 -160.0	 0.995	 100.0	 1	 272.632	 1.907; 0
	342	 0.0	 0.0	 99.918	 -99.918	 0.995	 100.0	 0	 287.368	 2.0; 0
	345	 16.223	 0.0	 160.0	 -160.0	 0.995	 100.0	 1	 28.717	 3.729; 0
	350	 84.149	 0.0	 160.0	 -160.0	 0.995	 100.0	 1	 134.156	 34.142; 0
	352	 0.0	 0.0	 302.333	 -302.333	 0.995	 907.0	 0	 254.0	 2.0; 0
	353	 75.017	 0.0	 160.0	 -160.0	 0.995	 100.0	 1	 124.492	 25.542; 0
	357	 0.0	 0.0	 33.333	 -33.333	 0.995	 100.0	 0	 137.965	 122.965; 0
	361	 327.7325	 0.0	 160.0	 -160.0	 0.995	 100.0	 1	 526.43	 129.035; 0
	364	 0.0	 0.0	 33.333	 -33.333	 0.995	 100.0	 0	 42.029	 27.029; 0
	370	 0.0	 0.0	 92.945	 -62.0	 0.995	 216.55	 0	 267.313	 99.538; 0
	370	 0.0	 0.0	 92.945	 -62.0	 0.995	 179.0	 0	 267.313	 99.538; 0
	370	 0.0	 0.0	 92.945	 -75.0	 0.995	 179.0	 0	 267.313	 99.538; 0
	371	 0.0	 0.0	 65.514	 -65.514	 0.995	 179.0	 0	 188.421	 2.0; 0
	373	 41.9475	 0.0	 20.13	 -20.13	 0.995	 58.99	 1	 57.895	 26.0; 0
	374	 0.0	 0.0	 18.333	 -18.333	 0.995	 55.0	 0	 55.0	 26.0; 0
	375	 0.0	 0.0	 107.604	 -107.604	 0.995	 0.36	 0	 309.474	 2.0; 0
	376	 0.0	 0.0	 9.516	 -9.516	 0.995	 26.0	 0	 27.368	 2.0; 0
	376	 0.0	 0.0	 33.333	 -33.333	 0.995	 100.0	 0	 261.0	 3.293; 0
	380	 0.0	 0.0	 33.333	 -33.333	 0.995	 100.0	 0	 33.035	 18.035; 0
	384	 0.0	 0.0	 6.588	 -6.588	 0.995	 18.0	 0	 18.947	 2.0; 0
	385	 12.579	 0.0	 8.052	 -8.052	 0.995	 22.0	 1	 23.158	 2.0; 0
	390	 0.0	 0.0	 33.333	 -33.333	 0.995	 100.0	 0	 28.078	 13.078; 0
	391	 156.7895	 0.0	 108.336	 -108.336	 0.995	 0.24	 1	 311.579	 2.0; 0
	395	 0.0	 0.0	 97.722	 -97.722	 0.995	 2.0	 0	 281.053	 2.0; 0
	401	 0.0	 0.0	 94.794	 -94.794	 0.995	 1.0	 0	 272.632	 2.0; 0
	402	 0.0	 0.0	 96.258	 -96.258	 0.995	 1.08	 0	 276.842	 2.0; 0
	408	 0.0	 0.0	 107.97	 -107.97	 0.995	 0.12	 0	 310.526	 2.0; 0
	414	 0.0	 0.0	 100.65	 -100.65	 0.995	 9.0	 0	 289.474	 2.0; 0
	416	 146.263	 0.0	 101.016	 -101.016	 0.995	 0.24	 1	 290.526	 2.0; 0
	422	 63.5965	 0.0	 160.0	 -160.0	 0.995	 100.0	 1	 123.413	 3.78; 0
	428	 146.263	 0.0	 101.016	 -101.016	 0.995	 7.22	 1	 290.526	 2.0; 0
	428	 0.0	 0.0	 97.356	 -97.356	 0.995	 5.0	 0	 280.0	 2.0; 0
	428	 0.0	 0.0	 107.97	 -107.97	 0.995	 5.0	 0	 310.526	 2.0; 0
	436	 66.8685	 0.0	 160.0	 -160.0	 0.995	 100.0	 1	 121.822	 11.915; 0
	437	 100.991	 0.0	 160.0	 -160.0	 0.995	 100.0	 1	 179.592	 22.39; 0
	442	 0.0	 0.0	 33.333	 -33.333	 0.995	 100.0	 0	 275.0	 2.602; 0
	443	 0.0	 0.0	 33.333	 -33.333	 0.995	 100.0	 0	 29.367	 14.367; 0
	444	 0.0	 0.0	 1.333	 -1.333	 0.995	 4.0	 0	 289.0	 3.0; 0
	449	 27.0495	 0.0	 160.0	 -160.0	 0.995	 100.0	 1	 47.8	 6.299; 0
	469	 134.684	 0.0	 92.964	 -92.964	 0.995	 2.0	 1	 267.368	 2.0; 0
	470	 0.0	 0.0	 11.667	 -11.667	 0.995	 35.0	 0	 35.0	 9.0; 0
	470	 0.0	 0.0	 9.201	 -9.201	 0.995	 24.12	 0	 26.461	 9.0; 0
	471	 0.0	 0.0	 11.667	 -11.667	 0.995	 35.0	 0	 35.0	 9.0; 0
	471	 0.0	 0.0	 10.0	 -10.0	 0.995	 30.0	 0	 30.0	 9.0; 0
	471	 0.0	 0.0	 9.333	 -9.333	 0.995	 28.0	 0	 28.0	 9.0; 0
	474	 40.0745	 0.0	 160.0	 -160.0	 0.995	 100.0	 1	 70.019	 10.13; 0
	480	 40.219	 0.0	 160.0	 -160.0	 0.995	 100.0	 1	 65.965	 14.473; 0
	481	 32.06	 0.0	 160.0	 -160.0	 0.995	 100.0	 1	 53.3	 10.82; 0
	482	 62.751	 0.0	 160.0	 -160.0	 0.995	 100.0	 1	 100.941	 24.561; 0
	483	 178.6095	 0.0	 160.0	 -160.0	 0.995	 100.0	 1	 306.331	 50.888; 0
	487	 84.783	 0.0	 160.0	 -160.0	 0.995	 100.0	 1	 135.14	 34.426; 0
	490	 51.557	 0.0	 160.0	 -160.0	 0.995	 100.0	 1	 83.565	 19.549; 0
	494	 46.8965	 0.0	 160.0	 -160.0	 0.995	 100.0	 1	 83.599	 10.194; 0
	499	 54.093	 0.0	 160.0	 -160.0	 0.995	 100.0	 1	 89.883	 18.303; 0
	525	 0.0	 0.0	 33.333	 -33.333	 0.995	 100.0	 0	 203.917	 188.917; 0
	549	 32.947	 0.0	 160.0	 -160.0	 0.995	 100.0	 1	 58.576	 7.318; 0
	559	 0.0	 0.0	 31.015	 -31.015	 0.995	 93.044	 0	 80.5	 31.0; 0
	564	 0.0	 0.0	 47.69	 -11.618	 0.995	 141.505	 0	 137.159	 36.178; 0
	565	 0.0	 0.0	 47.692	 -11.62	 0.995	 135.577	 0	 137.164	 38.4; 0
	566	 0.0	 0.0	 47.692	 -11.62	 0.995	 120.747	 0	 137.164	 26.42; 0
	567	 0.0	 0.0	 47.692	 -11.62	 0.995	 153.119	 0	 137.164	 13.12; 0
	568	 0.0	 0.0	 47.69	 -11.618	 0.995	 120.216	 0	 137.159	 52.077; 0
	569	 80.462	 18.036	 47.692	 -11.62	 0.995	 110.999	 1	 137.164	 23.76; 0
	570	 0.0	 0.0	 44.179	 -44.179	 0.995	 132.538	 0	 95.0	 40.98; 0
	571	 82.925	 16.3705	 43.286	 -10.545	 0.995	 125.632	 1	 124.493	 41.357; 0
	572	 0.0	 0.0	 43.286	 -10.54	 0.995	 97.012	 0	 124.493	 39.82; 0
	573	 0.0	 0.0	 5.906	 -5.906	 0.995	 12.76	 0	 16.985	 2.0; 0
	576	 0.0	 0.0	 33.333	 -33.333	 0.995	 100.0	 0	 85.769	 70.769; 0
	578	 175.3945	 27.015	 75.03	 -21.0	 0.995	 253.76	 1	 215.789	 135.0; 0
	579	 0.0	 0.0	 68.333	 -68.333	 0.995	 205.0	 0	 205.0	 135.0; 0
	579	 0.0	 0.0	 84.912	 -31.0	 0.995	 232.0	 0	 244.211	 100.0; 0
	579	 264.158	 0.0	 183.0	 -183.0	 0.995	 222.0	 1	 526.316	 2.0; 0
	580	 0.0	 0.0	 91.616	 -15.0	 0.995	 268.92	 0	 263.492	 90.0; 0
	581	 0.0	 0.0	 77.333	 -77.333	 0.995	 232.0	 0	 232.0	 100.0; 0
	581	 0.0	 0.0	 91.5	 -15.0	 0.995	 268.92	 0	 263.158	 90.0; 0
	587	 517.9985	 0.0	 160.0	 -160.0	 0.995	 100.0	 1	 963.105	 72.892; 0
	591	 0.0	 0.0	 33.333	 -33.333	 0.995	 100.0	 0	 74.949	 59.949; 0
	596	 161.842	 31.126	 81.252	 -19.0	 0.995	 222.0	 1	 233.684	 90.0; 0
	599	 0.0	 0.0	 0.333	 -0.333	 0.995	 1.0	 0	 299.0	 2.0; 0
	602	 0.0	 0.0	 7.32	 -7.32	 0.995	 20.0	 0	 21.053	 5.0; 0
	611	 0.0	 0.0	 9.516	 -9.516	 0.995	 26.0	 0	 27.368	 2.0; 0
	619	 0.0	 0.0	 0.333	 -0.333	 0.995	 1.0	 0	 252.0	 2.0; 0
	620	 136.7895	 0.0	 94.428	 -94.428	 0.995	 2.0	 1	 271.579	 2.0; 0
	623	 0.0	 0.0	 33.333	 -33.333	 0.995	 100.0	 0	 259.0	 5.802; 0
	625	 27.316	 0.0	 18.3	 -18.3	 0.995	 50.0	 1	 52.632	 2.0; 0
	630	 146.7895	 0.0	 101.382	 -101.382	 0.995	 108.13	 1	 291.579	 2.0; 0
	633	 78.0835	 0.0	 160.0	 -160.0	 0.995	 100.0	 1	 145.216	 10.951; 0
	634	 156.005	 0.0	 160.0	 -160.0	 0.995	 100.0	 1	 296.567	 15.443; 0
	639	 0.0	 0.0	 33.333	 -33.333	 0.995	 100.0	 0	 85.248	 70.248; 0
	640	 0.0	 0.0	 33.333	 -33.333	 0.995	 100.0	 0	 221.788	 206.788; 0
	645	 182.7695	 15.4275	 92.855	 -62.0	 0.995	 216.55	 1	 267.056	 98.483; 0
	645	 0.0	 0.0	 92.855	 -62.0	 0.995	 179.0	 0	 267.056	 98.483; 0
	645	 182.7695	 8.9275	 92.855	 -75.0	 0.995	 179.0	 1	 267.056	 98.483; 0
	646	 95.2105	 0.0	 65.514	 -65.514	 0.995	 179.0	 1	 188.421	 2.0; 0
	648	 264.158	 0.0	 183.0	 -183.0	 0.995	 100.0	 1	 526.316	 2.0; 0
	649	 0.0	 0.0	 20.13	 -20.13	 0.995	 58.99	 0	 57.895	 26.0; 0
	650	 0.0	 0.0	 18.333	 -18.333	 0.995	 55.0	 0	 55.0	 26.0; 0
	652	 143.1055	 0.0	 98.82	 -98.82	 0.995	 0.36	 1	 284.211	 2.0; 0
	652	 264.158	 0.0	 183.0	 -183.0	 0.995	 100.0	 1	 526.316	 2.0; 0
	659	 10.4735	 0.0	 6.588	 -6.588	 0.995	 18.0	 1	 18.947	 2.0; 0
	660	 0.0	 0.0	 8.052	 -8.052	 0.995	 22.0	 0	 23.158	 2.0; 0
	667	 157.316	 0.0	 108.702	 -108.702	 0.995	 0.24	 1	 312.632	 2.0; 0
	667	 264.158	 0.0	 183.0	 -183.0	 0.995	 100.0	 1	 526.316	 2.0; 0
	674	 145.2105	 0.0	 100.284	 -100.284	 0.995	 2.0	 1	 288.421	 2.0; 0
	675	 8.8945	 0.0	 5.49	 -5.49	 0.995	 15.0	 1	 15.789	 2.0; 0
	679	 0.0	 0.0	 93.33	 -93.33	 0.995	 1.0	 0	 268.421	 2.0; 0
	684	 156.263	 0.0	 107.97	 -107.97	 0.995	 0.12	 1	 310.526	 2.0; 0
	684	 0.0	 0.0	 33.333	 -33.333	 0.995	 100.0	 0	 34.44	 19.44; 0
	688	 142.0525	 0.0	 98.088	 -98.088	 0.995	 9.0	 1	 282.105	 2.0; 0
	690	 154.158	 0.0	 106.506	 -106.506	 0.995	 0.24	 1	 306.316	 2.0; 0
	690	 264.158	 0.0	 183.0	 -183.0	 0.995	 100.0	 1	 526.316	 2.0; 0
	693	 264.158	 0.0	 183.0	 -183.0	 0.995	 100.0	 1	 526.316	 2.0; 0
	696	 0.0	 0.0	 33.333	 -33.333	 0.995	 100.0	 0	 28.122	 13.122; 0
	697	 0.0	 0.0	 33.333	 -33.333	 0.995	 100.0	 0	 257.0	 4.417; 0
	698	 0.0	 0.0	 52.613	 -1.0	 0.995	 148.19	 0	 151.316	 70.0; 0
	702	 0.0	 0.0	 50.325	 -40.0	 0.995	 147.7	 0	 144.737	 32.0; 0
	703	 0.0	 0.0	 37.667	 -37.667	 0.995	 113.0	 0	 113.0	 32.0; 0
	706	 0.0	 0.0	 45.0	 -45.0	 0.995	 135.0	 0	 135.0	 35.0; 0
	719	 0.0	 0.0	 54.903	 -1.25	 0.995	 144.0	 0	 157.903	 79.0; 0
	719	 0.0	 0.0	 36.667	 -36.667	 0.995	 110.0	 0	 110.0	 79.0; 0
...
];

%% generator cost data
%	2	startup	shutdown	n	c(n-1)	...	c0
mpc.gencost = [
	2	 0.0	 0.0	 3	   0.301600	  13.020000	 1978.000000;
	2	 0.0	 0.0	 3	   0.000000	   2.538000	 213.500000;
	2	 0.0	 0.0	 3	   0.012920	  15.500000	 202.500000;
	2	 0.0	 0.0	 3	   0.000000	  26.430000	 758.400000;
	2	 0.0	 0.0	 3	   0.060780	  43.020000	 1670.000000;
	2	 0.0	 0.0	 3	   0.000000	  23.650000	 672.000000;
	2	 0.0	 0.0	 3	   0.010810	  15.410000	 213.700000;
	2	 0.0	 0.0	 3	   0.000000	   0.670800	 144.400000;
	2	 0.0	 0.0	 3	   0.000000	  77.380000	 522.800000;
	2	 0.0	 0.0	 3	   0.000000	   2.142000	 126.400000;
	2	 0.0	 0.0	 3	   0.044350	  39.840000	 3035.000000;
	2	 0.0	 0.0	 3	   0.000000	  21.090000	 695.500000;
	2	 0.0	 0.0	 3	   0.000000	  17.430000	 985.600000;
	2	 0.0	 0.0	 3	   0.094060	  59.560000	 1157.000000;
	2	 0.0	 0.0	 3	   0.064860	  49.210000	 1771.000000;
	2	 0.0	 0.0	 3	   0.007780	  18.420000	 358.900000;
	2	 0.0	 0.0	 3	   0.013290	  16.940000	 642.600000;
	2	 0.0	 0.0	 3	   1.128000	   0.000000	 274.400000;
	2	 0.0	 0.0	 3	   0.219200	   0.000000	 1553.000000;
	2	 0.0	 0.0	 3	   0.000000	  44.010000	 171.200000;
	2	 0.0	 0.0	 3	   0.655200	  24.430000	  96.250000;
	2	 0.0	 0.0	 3	   0.130400	   1.185000	 1232.000000;
	2	 0.0	 0.0	 3	   0.009039	  19.880000	 234.200000;
	2	 0.0	 0.0	 3	   0.000000	   4.068000	 686.100000;
	2	 0.0	 0.0	 3	   0.009773	  20.660000	 261.700000;
	2	 0.0	 0.0	 3	   0.000000	  13.090000	 4280.000000;
	2	 0.0	 0.0	 3	   0.100500	  52.860000	 3001.000000;
	2	 0.0	 0.0	 3	   0.100300	  52.900000	 2957.000000;
	2	 0.0	 0.0	 3	   0.000000	  70.000000	 247.000000;
	2	 0.0	 0.0	 3	   0.045400	  44.380000	 336.400000;
	2	 0.0	 0.0	 3	   0.052510	  44.890000	 1787.000000;
	2	 0.0	 0.0	 3	   0.378400	   0.000000	 2845.000000;
	2	 0.0	 0.0	 3	   0.062420	  43.510000	 1696.000000;
	2	 0.0	 0.0	 3	   0.000000	  67.830000	 196.900000;
	2	 0.0	 0.0	 3	   0.000000	  62.450000	 191.500000;
	2	 0.0	 0.0	 3	   2.449000	  76.410000	 -630.700000;
	2	 0.0	 0.0	 3	   4.717000	  82.490000	 -908.000000;
	2	 0.0	 0.0	 3	   0.007858	  18.530000	 214.600000;
	2	 0.0	 0.0	 3	   0.000000	  19.470000	 519.800000;
	2	 0.0	 0.0	 3	   0.202500	  68.710000	 1384.000000;
	2	 0.0	 0.0	 3	   0.143100	  63.430000	 1774.000000;
	2	 0.0	 0.0	 3	   0.045400	  44.380000	 318.300000;
	2	 0.0	 0.0	 3	   0.106600	  52.170000	 3319.000000;
	2	 0.0	 0.0	 3	   0.827400	  14.920000	 1335.000000;
	2	 0.0	 0.0	 3	   0.000000	  66.010000	 356.800000;
	2	 0.0	 0.0	 3	   0.000000	   0.671100	  48.220000;
	2	 0.0	 0.0	 3	   0.064860	  36.760000	 652.000000;
	2	 0.0	 0.0	 3	   0.000000	   5.512000	 1480.000000;
	2	 0.0	 0.0	 3	   0.000000	   1.538000	 16190.000000;
	2	 0.0	 0.0	 3	   0.000000	   2.841000	 15420.000000;
	2	 0.0	 0.0	 3	   0.000000	   3.003000	 18870.000000;
	2	 0.0	 0.0	 3	   0.000000	   1.273000	 11880.000000;
	2	 0.0	 0.0	 3	   0.000000	   4.166000	 18630.000000;
	2	 0.0	 0.0	 3	   0.000451	   0.320700	 3547.000000;
	2	 0.0	 0.0	 3	   0.000000	   0.939100	 4614.000000;
	2	 0.0	 0.0	 3	   0.000000	   0.923500	 4067.000000;
	2	 0.0	 0.0	 3	   0.000000	   1.071000	 17750.000000;
	2	 0.0	 0.0	 3	   0.000000	   4.116000	 19350.000000;
	2	 0.0	 0.0	 3	   0.000000	   3.637000	 17110.000000;
	2	 0.0	 0.0	 3	   0.042560	  27.130000	 2989.000000;
	2	 0.0	 0.0	 3	   0.000000	  60.530000	 3696.000000;
	2	 0.0	 0.0	 3	   0.000000	   0.479300	  99.610000;
	2	 0.0	 0.0	 3	   0.000000	   1.205000	 15480.000000;
	2	 0.0	 0.0	 3	   0.000000	   5.534000	 141.300000;
	2	 0.0	 0.0	 3	   0.012550	  16.600000	 187.200000;
	2	 0.0	 0.0	 3	   0.000000	   1.686000	 212.000000;
	2	 0.0	 0.0	 3	   0.000000	   1.820000	 6060.000000;
	2	 0.0	 0.0	 3	   0.000000	   3.544000	 205.700000;
	2	 0.0	 0.0	 3	   0.000000	  49.980000	 -45.110000;
	2	 0.0	 0.0	 3	   0.008309	  19.070000	 156.400000;
	2	 0.0	 0.0	 3	   0.212800	  48.210000	 3398.000000;
	2	 0.0	 0.0	 3	   0.217000	  47.000000	 3495.000000;
	2	 0.0	 0.0	 3	   0.000000	   9.811000	 151.800000;
	2	 0.0	 0.0	 3	   0.045400	  44.380000	 300.400000;
	2	 0.0	 0.0	 3	   0.000000	  81.400000	 -1502.000000;
	2	 0.0	 0.0	 3	   0.275000	  15.670000	 5832.000000;
	2	 0.0	 0.0	 3	   0.470000	   8.416000	 390.000000;
	2	 0.0	 0.0	 3	   0.003248	   0.000000	 13790.000000;
	2	 0.0	 0.0	 3	   0.282400	  13.500000	 5978.000000;
	2	 0.0	 0.0	 3	   0.224400	  44.850000	 -383.500000;
	2	 0.0	 0.0	 3	   0.009176	  20.040000	 176.900000;
	2	 0.0	 0.0	 3	   0.008260	  19.010000	 204.600000;
	2	 0.0	 0.0	 3	   0.000000	  10.060000	 244.800000;
	2	 0.0	 0.0	 3	   0.066680	  49.840000	 1716.000000;
	2	 0.0	 0.0	 3	   0.010590	  21.520000	 199.400000;
	2	 0.0	 0.0	 3	   0.068040	  51.510000	 1294.000000;
	2	 0.0	 0.0	 3	   1.579000	   0.000000	 -11380.000000;
	2	 0.0	 0.0	 3	   0.000000	   2.164000	 10100.000000;
	2	 0.0	 0.0	 3	   0.000000	  89.500000	 336.700000;
	2	 0.0	 0.0	 3	   0.000000	  19.070000	 8130.000000;
	2	 0.0	 0.0	 3	   0.031190	  20.170000	 7383.000000;
	2	 0.0	 0.0	 3	   0.000000	  35.660000	 7315.000000;
	2	 0.0	 0.0	 3	   0.018090	  25.590000	 190.900000;
	2	 0.0	 0.0	 3	   0.000000	  17.010000	 1268.000000;
	2	 0.0	 0.0	 3	   0.262500	  25.700000	 2854.000000;
	2	 0.0	 0.0	 3	   0.000000	   1.130000	 156.200000;
	2	 0.0	 0.0	 3	   0.783800	  12.280000	 118.500000;
	2	 0.0	 0.0	 3	   0.010120	  21.020000	 299.100000;
	2	 0.0	 0.0	 3	   0.000000	  23.900000	 257.600000;
	2	 0.0	 0.0	 3	   0.000000	  94.830000	 -22.460000;
	2	 0.0	 0.0	 3	   0.000000	  51.010000	 106.400000;
	2	 0.0	 0.0	 3	   0.000000	  77.620000	 1098.000000;
	2	 0.0	 0.0	 3	   0.000000	   1.760000	 141.400000;
	2	 0.0	 0.0	 3	   0.082780	   0.111500	 211.400000;
	2	 0.0	 0.0	 3	   0.008602	  17.630000	 189.200000;
	2	 0.0	 0.0	 3	   0.000000	  21.770000	 220.500000;
	2	 0.0	 0.0	 3	   0.000000	   1.676000	 146.700000;
	2	 0.0	 0.0	 3	   0.010700	  15.330000	 195.900000;
	2	 0.0	 0.0	 3	   0.008081	  18.800000	 143.000000;
	2	 0.0	 0.0	 3	   0.046680	  45.110000	 227.700000;
	2	 0.0	 0.0	 3	   0.008081	  18.800000	 193.000000;
	2	 0.0	 0.0	 3	   0.008703	  19.510000	 209.600000;
	2	 0.0	 0.0	 3	   0.000000	   2.138000	 139.000000;
	2	 0.0	 0.0	 3	   0.055240	  48.180000	 652.500000;
	2	 0.0	 0.0	 3	   0.027110	  33.370000	 1561.000000;
	2	 0.0	 0.0	 3	   0.011920	  16.160000	 266.900000;
	2	 0.0	 0.0	 3	   0.000000	  51.480000	  17.440000;
	2	 0.0	 0.0	 3	   0.010810	  15.390000	 277.500000;
	2	 0.0	 0.0	 3	   0.000000	   7.310000	 247.000000;
	2	 0.0	 0.0	 3	   0.008946	  17.980000	 164.500000;
	2	 0.0	 0.0	 3	   0.000000	  29.280000	 479.900000;
	2	 0.0	 0.0	 3	   0.000000	  64.500000	 322.700000;
	2	 0.0	 0.0	 3	   0.000000	  43.280000	 471.900000;
	2	 0.0	 0.0	 3	   0.000000	  53.610000	 390.800000;
	2	 0.0	 0.0	 3	   0.964900	   0.000000	 628.100000;
	2	 0.0	 0.0	 3	   0.067680	  18.690000	 974.500000;
	2	 0.0	 0.0	 3	   0.000000	  18.700000	 1479.000000;
	2	 0.0	 0.0	 3	   0.000000	  15.780000	 691.400000;
	2	 0.0	 0.0	 3	   0.113700	  65.700000	 871.000000;
	2	 0.0	 0.0	 3	   0.000000	   0.240100	 3335.000000;
	2	 0.0	 0.0	 3	   0.065690	  49.500000	 1760.000000;
	2	 0.0	 0.0	 3	   0.000000	   3.714000	 633.600000;
	2	 0.0	 0.0	 3	   0.000000	   8.259000	 333.100000;
	2	 0.0	 0.0	 3	   0.000000	  24.700000	 1933.000000;
	2	 0.0	 0.0	 3	   0.000000	 398.800000	 -54750.000000;
	2	 0.0	 0.0	 3	   0.000000	   4.773000	 296.400000;
	2	 0.0	 0.0	 3	   0.000000	   4.942000	 1034.000000;
	2	 0.0	 0.0	 3	   0.065320	  49.140000	 2431.000000;
	2	 0.0	 0.0	 3	   0.090320	  37.850000	 2199.000000;
	2	 0.0	 0.0	 3	   0.054370	  46.250000	 1454.000000;
	2	 0.0	 0.0	 3	   0.043430	  42.710000	 801.800000;
	2	 0.0	 0.0	 3	   0.091760	  54.420000	 2277.000000;
	2	 0.0	 0.0	 3	   0.051900	  45.500000	 1326.000000;
	2	 0.0	 0.0	 3	   0.000000	  20.110000	 3008.000000;
	2	 0.0	 0.0	 3	   0.096010	  57.540000	 1716.000000;
	2	 0.0	 0.0	 3	   0.092650	  56.910000	 1655.000000;
	2	 0.0	 0.0	 3	   2.068000	  16.720000	 111.400000;
	2	 0.0	 0.0	 3	   0.000000	  41.810000	 2031.000000;
	2	 0.0	 0.0	 3	   0.000000	  74.050000	 4697.000000;
	2	 0.0	 0.0	 3	   0.000000	  85.460000	 3168.000000;
	2	 0.0	 0.0	 3	   0.042120	  22.280000	 7101.000000;
	2	 0.0	 0.0	 3	   0.000000	   0.421400	 169.000000;
	2	 0.0	 0.0	 3	   0.022260	  27.330000	 6553.000000;
	2	 0.0	 0.0	 3	   0.038340	  33.540000	 6494.000000;
	2	 0.0	 0.0	 3	   0.022350	  27.380000	 6584.000000;
	2	 0.0	 0.0	 3	   0.000000	   0.462500	 4641.000000;
	2	 0.0	 0.0	 3	   0.000000	  74.010000	 386.300000;
	2	 0.0	 0.0	 3	   0.032390	  32.020000	 6079.000000;
	2	 0.0	 0.0	 3	   0.007627	  18.260000	 176.100000;
	2	 0.0	 0.0	 3	   0.000000	  87.540000	 -61.490000;
	2	 0.0	 0.0	 3	   0.000000	   8.465000	  98.000000;
	2	 0.0	 0.0	 3	   0.000000	  12.800000	 233.800000;
	2	 0.0	 0.0	 3	   0.012170	  16.340000	 175.800000;
	2	 0.0	 0.0	 3	   0.000000	  23.630000	 522.800000;
	2	 0.0	 0.0	 3	   0.000000	   5.747000	 187.900000;
	2	 0.0	 0.0	 3	   0.010550	  15.220000	 178.100000;
	2	 0.0	 0.0	 3	   0.037090	  39.680000	 881.400000;
	2	 0.0	 0.0	 3	   0.011190	  15.370000	 1305.000000;
	2	 0.0	 0.0	 3	   0.000000	  20.550000	 4294.000000;
	2	 0.0	 0.0	 3	   0.968700	   0.000000	 -20420.000000;
	2	 0.0	 0.0	 3	   0.023570	  27.610000	 7140.000000;
	2	 0.0	 0.0	 3	   0.023570	  27.610000	 7152.000000;
	2	 0.0	 0.0	 3	   0.023570	  27.610000	 7110.000000;
	2	 0.0	 0.0	 3	   0.019300	  29.080000	 183.900000;
	2	 0.0	 0.0	 3	   0.002384	   0.738600	 443.000000;
	2	 0.0	 0.0	 3	   0.000000	  18.910000	 1247.000000;
	2	 0.0	 0.0	 3	   0.000000	  21.130000	 1235.000000;
	2	 0.0	 0.0	 3	   0.000000	  21.200000	 209.600000;
	2	 0.0	 0.0	 3	   0.000000	   1.149000	 139.700000;
	2	 0.0	 0.0	 3	   0.000000	  67.430000	  73.820000;
	2	 0.0	 0.0	 3	   0.000000	  59.450000	 120.000000;
	2	 0.0	 0.0	 3	   0.000000	   2.748000	 209.600000;
	2	 0.0	 0.0	 3	   0.000000	   1.640000	 166.100000;
	2	 0.0	 0.0	 3	   0.008200	  18.940000	 204.700000;
	2	 0.0	 0.0	 3	   0.000000	  52.380000	 101.900000;
	2	 0.0	 0.0	 3	   0.009474	  20.360000	 183.800000;
	2	 0.0	 0.0	 3	   0.000000	   1.218000	 168.800000;
	2	 0.0	 0.0	 3	   0.000000	  10.910000	 732.800000;
	2	 0.0	 0.0	 3	   0.008573	  19.370000	 179.900000;
	2	 0.0	 0.0	 3	   0.000000	   1.943000	 143.500000;
	2	 0.0	 0.0	 3	   0.001765	   0.368600	 137.100000;
	2	 0.0	 0.0	 3	   0.000000	   0.434900	 111.100000;
	2	 0.0	 0.0	 3	   0.000000	  16.310000	 691.000000;
	2	 0.0	 0.0	 3	   0.013850	  17.370000	 390.300000;
	2	 0.0	 0.0	 3	   0.102800	  52.350000	 645.200000;
	2	 0.0	 0.0	 3	   0.052510	  44.890000	 1793.000000;
	2	 0.0	 0.0	 3	   0.132800	  46.240000	 1523.000000;
	2	 0.0	 0.0	 3	   0.066600	  49.750000	 1802.000000;
	2	 0.0	 0.0	 3	   0.106500	  52.180000	 3283.000000;
	2	 0.0	 0.0	 3	   0.708200	  63.260000	 -1342.000000;
...
];

%% branch data
%	fbus	tbus	r	x	b	rateA	rateB	rateC	ratio	angle	status	angmin	angmax
mpc.branch = [
	1	60	0.02461	0.07336	0.00802	128	128	128	0	0	0	-30	 30.0;
	1	93	0.03244	0.09513	0.01073	128	128	128	0	0	1	-30	 30.0;
	2	74	0.00068	0.00368	0.00043	125	125	125	0	0	1	-30	 30.0;
	2	549	0.0001	0.01	0	119.81	143.78	143.8	0	0	1	-30	 30.0;
	4	43	0.0037	0.01909	0.00247	190	190	190	0	0	1	-30	 30.0;
	4	93	0.00349	0.01802	0.00231	190	190	190	0	0	0	-30	 30.0;
	7	60	0.01649	0.04916	0.00537	128	128	128	0	0	1	-30	 30.0;
	7	73	0.00374	0.01116	0.00122	128	128	128	0	0	1	-30	 30.0;
	10	27	0.0125	0.02353	0.00262	74	74	74	0	0	1	-30	 30.0;
	11	92	0.00236	0.00669	0.00079	62	62	62	0	0	1	-30	 30.0;
	16	93	0.00506	0.01482	0.00168	333.45	384.75	384.8	0	0	1	-30	 30.0;
	17	81	0.00892	0.05374	0.01281	249	249	249	0	0	1	-30	 30.0;
	17	93	0.0001	0.001	0	260	312	312	0	0	1	-30	 30.0;
	18	66	2.00E-05	0.001	0	333	350	350	0	0	1	-30	 30.0;
	19	31	0.00071	0.00582	0.01221	510	510	510	0	0	1	-30	 30.0;
	19	35	7.00E-05	0.001	0.00171	564	612	612	0	0	1	-30	 30.0;
	19	69	0.0001	0.001	0	260	312	312	0	0	1	-30	 30.0;
	21	57	0.04598	0.09139	0.00983	86	86	86	0	0	0	-30	 30.0;
	21	91	0.02947	0.10073	0.01266	86	86	86	0	0	1	-30	 30.0;
	22	67	0.01108	0.04402	0.00618	236.27	283.52	283.52	0	0	0	-30	 30.0;
	22	73	0.00993	0.03804	0.00535	225.46	270.55	270.6	0	0	0	-30	 30.0;
	23	44	0.00266	0.01058	0.0015	276.93	332.32	332.32	0	0	1	-30	 30.0;
	23	137	0.0001	0.01	0	152.75	183.3	183.3	1	0	1	-30	 30.0;
	23	254	0.0001	0.01	0	300	400	400	1	0	1	-30	 30.0;
	24	94	0.00489	0.02021	0.00261	141	153	153	0	0	1	-30	 30.0;
	27	72	0.01151	0.02166	0.00241	74	74	74	0	0	1	-30	 30.0;
	30	73	0.01736	0.07168	0.00928	165	165	165	0	0	0	-30	 30.0;
	30	94	0.01303	0.05385	0.00695	141	153	153	0	0	1	-30	 30.0;
	31	38	0.00032	0.00211	0.00427	406	432	432	0	0	1	-30	 30.0;
	31	66	0.00151	0.01243	0.02626	497	497	497	0	0	1	-30	 30.0;
	31	66	0.00151	0.01236	0.02612	510	510	510	0	0	1	-30	 30.0;
	32	50	0.0092	0.02296	0.00287	260	312	312	0	0	1	-30	 30.0;
	32	72	0.02022	0.04363	0.00517	74	74	74	0	0	1	-30	 30.0;
	33	36	0.0001	0.001	0	260	312	312	0	0	1	-30	 30.0;
	36	38	0.00062	0.00521	0.01419	633	633	633	0	0	0	-30	 30.0;
	36	45	0.0001	0.001	0	260	312	312	0	0	1	-30	 30.0;
	36	483	0.0001	0.01	0	257.59	297.22	297.22	0	0	1	-30	 30.0;
	37	55	0.00249	0.02091	0.043	510	510	510	0	0	1	-30	 30.0;
	37	79	0.00037	0.00306	0.00647	510	510	510	0	0	1	-30	 30.0;
	40	47	0.00855	0.03356	0.00426	160	160	160	0	0	0	-30	 30.0;
	40	93	0.01448	0.0565	0.00724	160	160	160	0	0	1	-30	 30.0;
	41	46	0.00572	0.03592	0.12701	617	617	617	0	0	1	-30	 30.0;
	41	87	0.0001	0.001	0	260	312	312	0	0	0	-30	 30.0;
	44	67	0.01683	0.06688	0.0094	264.9	317.88	317.9	0	0	0	-30	 30.0;
	46	90	0.00242	0.01482	0.05476	658	658	658	0	0	1	-30	 30.0;
	50	74	0.00113	0.00465	0.00061	74	74	74	0	0	1	-30	 30.0;
	52	87	0.0001	0.001	0	260	312	312	0	0	1	-30	 30.0;
	53	62	0.00689	0.01291	0.00144	74	74	74	0	0	0	-30	 30.0;
	53	82	0.00037	0.001	0	74	74	74	0	0	1	-30	 30.0;
	57	85	0.0002	0.001	0	86	86	86	0	0	1	-30	 30.0;
	58	76	0.02397	0.04498	0.00499	74	74	74	0	0	1	-30	 30.0;
	58	91	0.0293	0.08307	0.00997	128	128	128	0	0	1	-30	 30.0;
	58	92	0.03256	0.0924	0.01108	59	59	59	0	0	0	-30	 30.0;
	58	499	0.0001	0.01	0	139.18	167.01	167.01	0	0	1	-30	 30.0;
	62	76	0.00523	0.00981	0.00108	74	74	74	0	0	1	-30	 30.0;
	63	90	0.00075	0.00528	0.02325	331	331	331	0	0	1	-30	 30.0;
	68	83	0.01058	0.02193	0.00216	86	86	86	0	0	1	-30	 30.0;
	68	84	0.0059	0.01222	0.00121	86	86	86	0	0	1	-30	 30.0;
	69	86	0.00519	0.04108	0.09283	510	510	510	0	0	1	-30	 30.0;
	71	93	0.03778	0.11512	0.0141	128	128	128	0	0	1	-30	 30.0;
	79	87	0.00493	0.0412	0.0844	510	510	510	0	0	1	-30	 30.0;
	81	494	0.0001	0.01	0	235.85	272.14	272.14	0	0	1	-30	 30.0;
	83	91	0.0039	0.01106	0.00133	86	86	86	0	0	0	-30	 30.0;
	95	96	2.00E-05	0.00021	0	876	876	876	0	0	1	-30	 30.0;
	95	99	0.00171	0.00961	0.01424	250	250	250	0	0	1	-30	 30.0;
	96	748	0.0001	0.01	0	121.81	146.17	146.2	0	0	1	-30	 30.0;
	97	98	2.00E-05	0.00021	0	876	876	876	0	0	1	-30	 30.0;
	97	100	0.00194	0.01415	0.0223	341	341	341	0	0	1	-30	 30.0;
	97	697	0.0001	0.01	0	83.7	98.6	98.6	0	0	1	-30	 30.0;
	98	749	0.0001	0.01	0	122.55	141.4	141.4	0	0	1	-30	 30.0;
	99	100	2.00E-05	0.00021	0	876	876	876	0	0	1	-30	 30.0;
	99	102	0.00537	0.04039	0.06005	319	319	319	0	0	1	-30	 30.0;
	100	698	0.0001	0.01	0	187.88	216.79	216.8	0	0	0	-30	 30.0;
	101	102	0.00066	0.00496	0.00758	319	319	319	0	0	1	-30	 30.0;
	101	696	0.0001	0.01	0	125.8	150.96	151	0	0	1	-30	 30.0;
	102	747	0.0001	0.01	0	258.73	298.54	298.54	0	0	1	-30	 30.0;
	103	152	0.01248	0.04595	0.00524	75	75	75	0	0	1	-30	 30.0;
	104	105	8.00E-05	0.00083	0	634.11	731.66	731.7	0	0	0	-30	 30.0;
	104	170	0.00364	0.01149	0.00123	644.69	743.87	743.9	0	0	0	-30	 30.0;
	105	180	0.00653	0.02058	0.00222	628.23	724.88	724.9	0	0	1	-30	 30.0;
	106	107	8.00E-05	0.00083	0	438	438	438	0	0	1	-30	 30.0;
	106	140	0.00488	0.01231	0.00189	74.62	97.01	97.01	0	0	0	-30	 30.0;
	107	203	0.00074	0.00223	0.0003	62	62	62	0	0	0	-30	 30.0;
	108	170	0.00157	0.00463	0.00057	653.46	753.99	754	0	0	0	-30	 30.0;
	108	684	0.0001	0.01	0	667.77	770.51	770.51	0	0	0	-30	 30.0;
	109	144	0.00041	0.00124	0.00013	75	75	75	0	0	1	-30	 30.0;
	110	111	8.00E-05	0.00083	0	438	438	438	0	0	1	-30	 30.0;
	110	140	0.00455	0.01289	0.00174	62	62	62	0	0	1	-30	 30.0;
	111	207	0.00603	0.01711	0.00231	62	62	62	0	0	1	-30	 30.0;
	112	113	8.00E-05	0.00083	0	438	438	438	0	0	1	-30	 30.0;
	112	114	0.0005	0.00149	0.0096	98	98	98	0	0	1	-30	 30.0;
	114	131	8.00E-05	0.00066	7.00E-05	132	152.31	152.31	0	0	1	-30	 30.0;
	114	190	0.00207	0.01413	0.00162	154.01	177.7	177.7	0	0	1	-30	 30.0;
	115	126	0.00339	0.01116	0.00113	75	75	75	0	0	1	-30	 30.0;
	115	150	0.00132	0.00231	0.00023	47	47	47	0	0	1	-30	 30.0;
	115	175	0.00636	0.0205	0.00213	75	75	75	0	0	1	-30	 30.0;
	115	178	0.00264	0.00818	0.00094	75	75	75	0	0	1	-30	 30.0;
	115	192	0.0081	0.02298	0.00239	63	63	63	0	0	1	-30	 30.0;
	116	117	8.00E-05	0.00083	0	438	438	438	0	0	1	-30	 30.0;
	116	132	0.00174	0.00496	0.00065	57	57	57	0	0	1	-30	 30.0;
	116	153	0.00455	0.01405	0.0016	75	75	75	0	0	1	-30	 30.0;
	116	186	0.00504	0.01562	0.00173	75	75	75	0	0	1	-30	 30.0;
	116	195	0.00711	0.02322	0.00234	302.57	349.12	349.12	0	0	1	-30	 30.0;
	117	145	0.00496	0.01628	0.00164	123.52	148.23	148.23	0	0	1	-30	 30.0;
	117	168	0.00496	0.01496	0.00179	172.26	198.76	198.8	0	0	1	-30	 30.0;
	117	187	0.00504	0.01562	0.00173	75	75	75	0	0	1	-30	 30.0;
	118	119	0.00124	0.00421	0.00059	70	70	70	0	0	0	-30	 30.0;
	119	122	0.00413	0.01587	0.00183	91.74	105.86	105.9	0	0	1	-30	 30.0;
	119	152	0.00488	0.01678	0.00193	100.5	115.96	116	0	0	1	-30	 30.0;
	120	144	0.00355	0.01149	0.00116	75	75	75	0	0	0	-30	 30.0;
	120	199	0.00182	0.00587	0.00587	114	114	114	0	0	1	-30	 30.0;
	121	122	8.00E-05	0.00083	0	438	438	438	0	0	1	-30	 30.0;
	121	124	0.00066	0.00207	0.00021	75	75	75	0	0	1	-30	 30.0;
	121	136	0.00066	0.0024	0.00031	80	80	80	0	0	1	-30	 30.0;
	121	144	0.00314	0.01355	0.00135	80	80	80	0	0	1	-30	 30.0;
	121	162	0.00223	0.00826	0.00099	70	70	70	0	0	1	-30	 30.0;
	122	123	0.00066	0.00215	0.00022	75	75	75	0	0	0	-30	 30.0;
	122	144	0.00314	0.01355	0.00135	80	80	80	0	0	1	-30	 30.0;
	122	197	0.00091	0.00273	0.00033	75	75	75	0	0	1	-30	 30.0;
	125	144	0.0014	0.00455	0.00046	75	75	75	0	0	0	-30	 30.0;
	127	128	8.00E-05	0.00083	0	438	438	438	0	0	1	-30	 30.0;
	127	140	0.00405	0.01331	0.00135	107.11	123.59	123.6	0	0	1	-30	 30.0;
	128	182	0.01025	0.02926	0.0039	107.37	123.89	123.9	0	0	1	-30	 30.0;
	129	130	0.00231	0.00273	0.00058	39	39	39	0	0	1	-30	 30.0;
	130	151	0.00579	0.01785	0.00204	198.93	238.72	238.72	0	0	1	-30	 30.0;
	130	174	0.0043	0.01347	0.00147	188.62	226.34	226.34	0	0	1	-30	 30.0;
	133	167	0.01198	0.03702	0.00418	156.12	180.13	180.13	0	0	0	-30	 30.0;
	133	757	0.0001	0.01	0	151.01	174.25	174.3	0	0	0	-30	 30.0;
	135	144	0.00372	0.01207	0.00122	75	75	75	0	0	0	-30	 30.0;
	137	174	0.00686	0.02215	0.00232	174.85	209.82	209.82	0	0	1	-30	 30.0;
	138	139	0.00033	0.00041	9.00E-05	39	39	39	0	0	1	-30	 30.0;
	139	151	0.0076	0.02355	0.00263	604.64	697.67	697.7	0	0	0	-30	 30.0;
	139	179	0.00273	0.00876	0.0009	607.79	701.3	701.3	0	0	1	-30	 30.0;
	140	190	0.01694	0.05562	0.0056	95.16	109.8	109.8	0	0	1	-30	 30.0;
	141	151	0.03413	0.08545	0.00909	144.77	167.04	167.04	0	0	1	-30	 30.0;
	141	158	0.00992	0.01661	0.00395	109.6	126.46	126.5	0	0	1	-30	 30.0;
	141	164	0.02496	0.03802	0.00491	39	39	39	0	0	1	-30	 30.0;
	141	205	0.0062	0.01562	0.00277	62	62	62	0	0	0	-30	 30.0;
	142	143	8.00E-05	0.00083	0	438	438	438	0	0	0	-30	 30.0;
	142	211	0.00463	0.01446	0.00163	75	75	75	0	0	0	-30	 30.0;
	143	740	0.0001	0.01	0	83.7	98.6	98.6	0	0	1	-30	 30.0;
	144	192	0.0014	0.00471	0.00048	75	75	75	0	0	1	-30	 30.0;
	144	193	0.00331	0.01066	0.0011	75	75	75	0	0	1	-30	 30.0;
	145	275	0.0001	0.01	0	124.05	148.86	148.9	0	0	1	-30	 30.0;
	146	147	8.00E-05	0.00083	0	438	438	438	0	0	0	-30	 30.0;
	146	155	0.0105	0.02983	0.00402	62	62	62	0	0	1	-30	 30.0;
	147	208	0.01909	0.05413	0.00729	62	62	62	0	0	0	-30	 30.0;
	148	149	0.00438	0.0086	0.00086	47	47	47	0	0	1	-30	 30.0;
	149	176	0.00628	0.02	0.00213	75	75	75	0	0	0	-30	 30.0;
	149	272	0.0001	0.01	0	83.7	98.6	98.6	0	0	0	-30	 30.0;
	151	189	0.00579	0.01446	0.00162	113.45	130.9	130.9	0	0	1	-30	 30.0;
	152	161	0.00769	0.02711	0.00317	85.94	111.72	111.72	0	0	0	-30	 30.0;
	152	186	0.01025	0.03198	0.00354	62	62	62	0	0	1	-30	 30.0;
	152	187	0.01025	0.03198	0.00354	62	62	62	0	0	1	-30	 30.0;
	153	154	8.00E-05	0.00083	0	438	438	438	0	0	1	-30	 30.0;
	154	211	0.00091	0.00256	0.00033	75	75	75	0	0	0	-30	 30.0;
	155	156	8.00E-05	0.00083	0	438	438	438	0	0	1	-30	 30.0;
	155	165	0.00628	0.01959	0.00217	62	62	62	0	0	1	-30	 30.0;
	155	201	0.00083	0.00248	0.00027	62	62	62	0	0	1	-30	 30.0;
	156	166	0.0062	0.01942	0.00215	62	62	62	0	0	0	-30	 30.0;
	156	172	0.01587	0.05182	0.00527	62	62	62	0	0	1	-30	 30.0;
	156	204	0.00124	0.00355	0.00045	62	62	62	0	0	0	-30	 30.0;
	156	206	0.00198	0.00529	0.00071	50	50	50	0	0	1	-30	 30.0;
	156	656	0.0001	0.01	0	106.7	123.11	123.11	0	0	1	-30	 30.0;
	157	158	0.00223	0.00562	0.0006	50	50	50	0	0	1	-30	 30.0;
	158	190	0.01471	0.03025	0.00563	110.38	127.36	127.4	0	0	0	-30	 30.0;
	159	160	8.00E-05	0.00083	0	438	438	438	0	0	1	-30	 30.0;
	159	386	0.0001	0.01	0	151.46	174.76	174.8	0	0	0	-30	 30.0;
	160	171	0.01488	0.02661	0.00302	50.93	61.12	61.12	0	0	1	-30	 30.0;
	161	162	8.00E-05	0.00083	0	438	438	438	0	0	0	-30	 30.0;
	163	164	8.00E-05	0.00083	0	438	438	438	0	0	1	-30	 30.0;
	163	171	0.00215	0.00603	0.00063	39	39	39	0	0	1	-30	 30.0;
	167	168	8.00E-05	0.00083	0	438	438	438	0	0	1	-30	 30.0;
	169	170	0.00231	0.00694	0.00072	63	63	63	0	0	1	-30	 30.0;
	171	172	8.00E-05	0.00083	0	438	438	438	0	0	1	-30	 30.0;
	173	174	0.00603	0.01744	0.0023	105	105	105	0	0	0	-30	 30.0;
	175	176	8.00E-05	0.00083	0	438	438	438	0	0	1	-30	 30.0;
	177	178	0.00124	0.00364	0.00047	57	57	57	0	0	1	-30	 30.0;
	178	199	0.0038	0.01215	0.00125	75	75	75	0	0	0	-30	 30.0;
	179	180	8.00E-05	0.00083	0	615.32	709.99	710	0	0	1	-30	 30.0;
	181	182	8.00E-05	0.00083	0	438	438	438	0	0	0	-30	 30.0;
	181	183	0.01248	0.03545	0.00474	112.57	129.89	129.9	0	0	1	-30	 30.0;
	183	188	0.00769	0.01934	0.00211	112.18	129.43	129.43	0	0	1	-30	 30.0;
	184	186	0.00521	0.00884	0.00089	47	47	47	0	0	1	-30	 30.0;
	185	187	0.00521	0.00884	0.00089	47	47	47	0	0	1	-30	 30.0;
	188	189	8.00E-05	0.00083	0	438	438	438	0	0	1	-30	 30.0;
	190	196	0.00372	0.01231	0.00124	62	62	62	0	0	1	-30	 30.0;
	190	444	0.0001	0.01	0	83.7	98.6	98.6	0	0	1	-30	 30.0;
	191	192	0.0005	0.0014	0.00017	75	75	75	0	0	1	-30	 30.0;
	194	195	0.00074	0.00231	0.00026	75	75	75	0	0	1	-30	 30.0;
	195	474	0.0001	0.01	0	318.91	367.97	368	0	0	1	-30	 30.0;
	198	199	8.00E-05	0.0002	2.00E-05	75	75	75	0	0	1	-30	 30.0;
	200	201	8.00E-05	0.00083	0	438	438	438	0	0	1	-30	 30.0;
	200	202	0.00149	0.00446	0.00057	62	62	62	0	0	1	-30	 30.0;
	202	203	8.00E-05	0.00083	0	438	438	438	0	0	0	-30	 30.0;
	204	205	8.00E-05	0.00083	0	438	438	438	0	0	1	-30	 30.0;
	206	207	8.00E-05	0.00083	0	438	438	438	0	0	1	-30	 30.0;
	209	210	8.00E-05	0.00083	0	438	438	438	0	0	1	-30	 30.0;
	209	211	0	0.0002	0	75	75	75	0	0	1	-30	 30.0;
	212	221	0.0012	0.0089	0.01512	461	461	461	0	0	1	-30	 30.0;
...
];

% INFO    : === Translation Options ===
% INFO    : Phase Angle Bound:           30.0 (deg.)
% INFO    : Setting Flat Start
% INFO    : 
% INFO    : === Generator Bounds Update Notes ===
% INFO    : 
% INFO    : === Base KV Replacement Notes ===
% INFO    : 
% INFO    : === Transformer Setting Replacement Notes ===
% WARNING : Branch 23-137 connects two different voltage levels (115.0, 138.0), changing tap ratio 0.0 => 1.0
% WARNING : Branch 23-254 connects two different voltage levels (115.0, 138.0), changing tap ratio 0.0 => 1.0
% INFO    : 
% INFO    : === Line Capacity Monotonicity Notes ===
% INFO    : Updated Thermal Rating: on line 22-67 : Rate C - 283.5 -> 283.52
% INFO    : Updated Thermal Rating: on line 23-44 : Rate C - 332.3 -> 332.32
% INFO    : Updated Thermal Rating: on line 36-483 : Rate C - 297.2 -> 297.22
% INFO    : Updated Thermal Rating: on line 58-499 : Rate C - 167.0 -> 167.01
% INFO    : Updated Thermal Rating: on line 81-494 : Rate C - 272.1 -> 272.14
% INFO    : Updated Thermal Rating: on line 102-747 : Rate C - 298.5 -> 298.54
% INFO    : Updated Thermal Rating: on line 106-140 : Rate C - 97.0 -> 97.01
% INFO    : Updated Thermal Rating: on line 108-684 : Rate C - 770.5 -> 770.51
% INFO    : Updated Thermal Rating: on line 114-131 : Rate C - 152.3 -> 152.31
% INFO    : Updated Thermal Rating: on line 116-195 : Rate C - 349.1 -> 349.12
% INFO    : Updated Thermal Rating: on line 117-145 : Rate C - 148.2 -> 148.23
% INFO    : Updated Thermal Rating: on line 130-151 : Rate C - 238.7 -> 238.72
% INFO    : Updated Thermal Rating: on line 130-174 : Rate C - 226.3 -> 226.34
% INFO    : Updated Thermal Rating: on line 133-167 : Rate C - 180.1 -> 180.13
% INFO    : Updated Thermal Rating: on line 137-174 : Rate C - 209.8 -> 209.82
% INFO    : Updated Thermal Rating: on line 141-151 : Rate C - 167.0 -> 167.04
% INFO    : Updated Thermal Rating: on line 152-161 : Rate C - 111.7 -> 111.72
% INFO    : Updated Thermal Rating: on line 156-656 : Rate C - 123.1 -> 123.11
% INFO    : Updated Thermal Rating: on line 160-171 : Rate C - 61.1 -> 61.12
% INFO    : Updated Thermal Rating: on line 183-188 : Rate C - 129.4 -> 129.43
% INFO    : Updated Thermal Rating: on line 215-221 : Rate C - 478.2 -> 478.22
% INFO    : Updated Thermal Rating: on line 216-364 : Rate C - 579.8 -> 579.83
% INFO    : Updated Thermal Rating: on line 220-587 : Rate C - 525.5 -> 525.54
% INFO    : Updated Thermal Rating: on line 225-357 : Rate C - 439.8 -> 439.84
% INFO    : Updated Thermal Rating: on line 253-260 : Rate C - 143.3 -> 143.32
% INFO    : Updated Thermal Rating: on line 256-261 : Rate C - 153.8 -> 153.85
% INFO    : Updated Thermal Rating: on line 313-791 : Rate C - 355.6 -> 355.65
% INFO    : Updated Thermal Rating: on line 372-391 : Rate C - 267.0 -> 267.04
% INFO    : Updated Thermal Rating: on line 375-391 : Rate C - 246.9 -> 246.93
% INFO    : Updated Thermal Rating: on line 383-386 : Rate C - 166.1 -> 166.12
% INFO    : Updated Thermal Rating: on line 395-416 : Rate C - 321.0 -> 321.03
% INFO    : Updated Thermal Rating: on line 403-404 : Rate C - 122.3 -> 122.32
% INFO    : Updated Thermal Rating: on line 405-408 : Rate C - 220.3 -> 220.32
% INFO    : Updated Thermal Rating: on line 406-413 : Rate C - 91.1 -> 91.12
% INFO    : Updated Thermal Rating: on line 422-631 : Rate C - 128.3 -> 128.31
% INFO    : Updated Thermal Rating: on line 425-436 : Rate C - 217.4 -> 217.45
% INFO    : Updated Thermal Rating: on line 426-470 : Rate C - 111.8 -> 111.81
% INFO    : Updated Thermal Rating: on line 428-452 : Rate C - 201.5 -> 201.54
% INFO    : Updated Thermal Rating: on line 431-434 : Rate C - 129.6 -> 129.63
% INFO    : Updated Thermal Rating: on line 437-624 : Rate C - 219.1 -> 219.13
% INFO    : Updated Thermal Rating: on line 447-453 : Rate C - 138.0 -> 138.04
% INFO    : Updated Thermal Rating: on line 448-470 : Rate C - 129.1 -> 129.12
...